<?xml version="1.0" encoding="UTF-8"?>
<additional>
    <tlLogic id="A0" type="static" programID="a" offset="0">
        <phase duration="8" state="GGGgrrrrGGGgrrrr"/>
        <phase duration="3" state="yyyyrrrryyyyrrrr"/>
        <phase duration="8" state="rrrrGGGgrrrrGGGg"/>
        <phase duration="3" state="rrrryyyyrrrryyyy"/>
    </tlLogic>
    <tlLogic id="A1" type="static" programID="a" offset="0">
        <phase duration="6" state="GGGgrrrrGGGgrrrr"/>
        <phase duration="3" state="yyyyrrrryyyyrrrr"/>
        <phase duration="8" state="rrrrGGGgrrrrGGGg"/>
        <phase duration="3" state="rrrryyyyrrrryyyy"/>
    </tlLogic>
    <tlLogic id="A2" type="static" programID="a" offset="0">
        <phase duration="8" state="GGGgrrrrGGGgrrrr"/>
        <phase duration="3" state="yyyyrrrryyyyrrrr"/>
        <phase duration="8" state="rrrrGGGgrrrrGGGg"/>
        <phase duration="3" state="rrrryyyyrrrryyyy"/>
    </tlLogic>
    <tlLogic id="A3" type="static" programID="a" offset="0">
        <phase duration="8" state="GGGgrrrrGGGgrrrr"/>
        <phase duration="3" state="yyyyrrrryyyyrrrr"/>
        <phase duration="8" state="rrrrGGGgrrrrGGGg"/>
        <phase duration="3" state="rrrryyyyrrrryyyy"/>
    </tlLogic>
    <tlLogic id="B0" type="static" programID="a" offset="0">
        <phase duration="7" state="GGGgrrrrGGGgrrrr"/>
        <phase duration="3" state="yyyyrrrryyyyrrrr"/>
        <phase duration="12" state="rrrrGGGgrrrrGGGg"/>
        <phase duration="3" state="rrrryyyyrrrryyyy"/>
    </tlLogic>
    <tlLogic id="B1" type="static" programID="a" offset="0">
        <phase duration="11" state="GGGgrrrrGGGgrrrr"/>
        <phase duration="3" state="yyyyrrrryyyyrrrr"/>
        <phase duration="6" state="rrrrGGGgrrrrGGGg"/>
        <phase duration="3" state="rrrryyyyrrrryyyy"/>
    </tlLogic>
    <tlLogic id="B2" type="static" programID="a" offset="0">
        <phase duration="15" state="GGGgrrrrGGGgrrrr"/>
        <phase duration="3" state="yyyyrrrryyyyrrrr"/>
        <phase duration="12" state="rrrrGGGgrrrrGGGg"/>
        <phase duration="3" state="rrrryyyyrrrryyyy"/>
    </tlLogic>
    <tlLogic id="B3" type="static" programID="a" offset="0">
        <phase duration="16" state="GGGgrrrrGGGgrrrr"/>
        <phase duration="3" state="yyyyrrrryyyyrrrr"/>
        <phase duration="7" state="rrrrGGGgrrrrGGGg"/>
        <phase duration="3" state="rrrryyyyrrrryyyy"/>
    </tlLogic>
    <tlLogic id="C0" type="static" programID="a" offset="0">
        <phase duration="7" state="GGGgrrrrGGGgrrrr"/>
        <phase duration="3" state="yyyyrrrryyyyrrrr"/>
        <phase duration="11" state="rrrrGGGgrrrrGGGg"/>
        <phase duration="3" state="rrrryyyyrrrryyyy"/>
    </tlLogic>
    <tlLogic id="C1" type="static" programID="a" offset="0">
        <phase duration="11" state="GGGgrrrrGGGgrrrr"/>
        <phase duration="3" state="yyyyrrrryyyyrrrr"/>
        <phase duration="6" state="rrrrGGGgrrrrGGGg"/>
        <phase duration="3" state="rrrryyyyrrrryyyy"/>
    </tlLogic>
    <tlLogic id="C2" type="static" programID="a" offset="0">
        <phase duration="12" state="GGGgrrrrGGGgrrrr"/>
        <phase duration="3" state="yyyyrrrryyyyrrrr"/>
        <phase duration="13" state="rrrrGGGgrrrrGGGg"/>
        <phase duration="3" state="rrrryyyyrrrryyyy"/>
    </tlLogic>
    <tlLogic id="C3" type="static" programID="a" offset="0">
        <phase duration="8" state="GGGgrrrrGGGgrrrr"/>
        <phase duration="3" state="yyyyrrrryyyyrrrr"/>
        <phase duration="15" state="rrrrGGGgrrrrGGGg"/>
        <phase duration="3" state="rrrryyyyrrrryyyy"/>
    </tlLogic>
    <tlLogic id="D0" type="static" programID="a" offset="0">
        <phase duration="8" state="GGGgrrrrGGGgrrrr"/>
        <phase duration="3" state="yyyyrrrryyyyrrrr"/>
        <phase duration="9" state="rrrrGGGgrrrrGGGg"/>
        <phase duration="3" state="rrrryyyyrrrryyyy"/>
    </tlLogic>
    <tlLogic id="D1" type="static" programID="a" offset="0">
        <phase duration="10" state="GGGgrrrrGGGgrrrr"/>
        <phase duration="3" state="yyyyrrrryyyyrrrr"/>
        <phase duration="7" state="rrrrGGGgrrrrGGGg"/>
        <phase duration="3" state="rrrryyyyrrrryyyy"/>
    </tlLogic>
    <tlLogic id="D2" type="static" programID="a" offset="0">
        <phase duration="9" state="GGGgrrrrGGGgrrrr"/>
        <phase duration="3" state="yyyyrrrryyyyrrrr"/>
        <phase duration="10" state="rrrrGGGgrrrrGGGg"/>
        <phase duration="3" state="rrrryyyyrrrryyyy"/>
    </tlLogic>
    <tlLogic id="D3" type="static" programID="a" offset="0">
        <phase duration="7" state="GGGgrrrrGGGgrrrr"/>
        <phase duration="3" state="yyyyrrrryyyyrrrr"/>
        <phase duration="11" state="rrrrGGGgrrrrGGGg"/>
        <phase duration="3" state="rrrryyyyrrrryyyy"/>
    </tlLogic>
</additional>
