<?xml version="1.0" encoding="UTF-8"?>

<!-- generated on Fri Dec  4 09:36:48 2020 by Eclipse SUMO duarouter Version 1.7.0
<configuration xmlns:xsi="http://www.w3.org/2001/XMLSchema-instance" xsi:noNamespaceSchemaLocation="http://sumo.dlr.de/xsd/duarouterConfiguration.xsd">

    <input>
        <net-file value="4/../4x4_noWebster.net.xml"/>
        <route-files value="4/../3/4x4_003.rou.alt.xml"/>
        <weight-files value="4/../3/dump_003_900.xml"/>
    </input>

    <output>
        <output-file value="4/4x4_004.rou.xml"/>
        <alternatives-output value="4/4x4_004.rou.alt.xml"/>
        <exit-times value="false"/>
    </output>

    <processing>
        <max-alternatives value="5"/>
        <with-taz value="false"/>
        <weights.expand value="true"/>
        <routing-algorithm value="dijkstra"/>
        <gawron.beta value="0.9"/>
        <gawron.a value="0.5"/>
        <keep-all-routes value="false"/>
        <logit value="false"/>
        <logit.beta value="0.15"/>
        <logit.gamma value="1"/>
    </processing>

    <time>
        <begin value="0"/>
    </time>

    <report>
        <verbose value="false"/>
        <no-warnings value="false"/>
        <ignore-errors value="false"/>
        <no-step-log value="true"/>
    </report>

    <random_number>
        <random value="false"/>
    </random_number>

</configuration>
-->

<routes xmlns:xsi="http://www.w3.org/2001/XMLSchema-instance" xsi:noNamespaceSchemaLocation="http://sumo.dlr.de/xsd/routes_file.xsd">
    <vehicle id="0.0.0" depart="0.00">
        <route edges="bottom0A0 A0A1 A1A2 A2B2 B2B3 B3C3 C3D3 D3top3"/>
    </vehicle>
    <vehicle id="0.1.0" depart="0.00">
        <route edges="bottom1B0 B0C0 C0C1 C1C2 C2C3 C3top2"/>
    </vehicle>
    <vehicle id="0.3.0" depart="0.00">
        <route edges="bottom2C0 C0C1 C1C2 C2B2 B2B3 B3top1"/>
    </vehicle>
    <vehicle id="0.4.0" depart="0.00">
        <route edges="bottom3D0 D0D1 D1D2 D2D3 D3C3 C3B3 B3A3 A3top0"/>
    </vehicle>
    <vehicle id="0.5.0" depart="0.00">
        <route edges="left0A0 A0B0 B0C0 C0C1 C1D1 D1D2 D2D3 D3right3"/>
    </vehicle>
    <vehicle id="0.6.0" depart="0.00">
        <route edges="left1A1 A1B1 B1C1 C1C2 C2D2 D2right2"/>
    </vehicle>
    <vehicle id="0.8.0" depart="0.00">
        <route edges="left2A2 A2B2 B2C2 C2D2 D2D1 D1right1"/>
    </vehicle>
    <vehicle id="0.9.0" depart="0.00">
        <route edges="left3A3 A3B3 B3C3 C3D3 D3D2 D2D1 D1D0 D0right0"/>
    </vehicle>
    <vehicle id="0.5.1" depart="4.80">
        <route edges="left0A0 A0B0 B0C0 C0C1 C1D1 D1D2 D2D3 D3right3"/>
    </vehicle>
    <vehicle id="0.6.1" depart="4.80">
        <route edges="left1A1 A1A2 A2B2 B2C2 C2D2 D2right2"/>
    </vehicle>
    <vehicle id="0.8.1" depart="4.80">
        <route edges="left2A2 A2B2 B2B1 B1C1 C1D1 D1right1"/>
    </vehicle>
    <vehicle id="0.9.1" depart="4.80">
        <route edges="left3A3 A3B3 B3C3 C3C2 C2D2 D2D1 D1D0 D0right0"/>
    </vehicle>
    <vehicle id="0.5.2" depart="9.60">
        <route edges="left0A0 A0B0 B0C0 C0C1 C1D1 D1D2 D2D3 D3right3"/>
    </vehicle>
    <vehicle id="0.6.2" depart="9.60">
        <route edges="left1A1 A1B1 B1C1 C1D1 D1D2 D2right2"/>
    </vehicle>
    <vehicle id="0.8.2" depart="9.60">
        <route edges="left2A2 A2B2 B2C2 C2D2 D2D1 D1right1"/>
    </vehicle>
    <vehicle id="0.9.2" depart="9.60">
        <route edges="left3A3 A3B3 B3C3 C3D3 D3D2 D2D1 D1D0 D0right0"/>
    </vehicle>
    <vehicle id="0.0.1" depart="14.40">
        <route edges="bottom0A0 A0B0 B0C0 C0D0 D0D1 D1D2 D2D3 D3top3"/>
    </vehicle>
    <vehicle id="0.1.1" depart="14.40">
        <route edges="bottom1B0 B0B1 B1B2 B2B3 B3C3 C3top2"/>
    </vehicle>
    <vehicle id="0.3.1" depart="14.40">
        <route edges="bottom2C0 C0C1 C1C2 C2C3 C3B3 B3top1"/>
    </vehicle>
    <vehicle id="0.4.1" depart="14.40">
        <route edges="bottom3D0 D0D1 D1C1 C1B1 B1A1 A1A2 A2A3 A3top0"/>
    </vehicle>
    <vehicle id="0.5.3" depart="14.40">
        <route edges="left0A0 A0A1 A1A2 A2A3 A3B3 B3C3 C3D3 D3right3"/>
    </vehicle>
    <vehicle id="0.6.3" depart="14.40">
        <route edges="left1A1 A1B1 B1C1 C1D1 D1D2 D2right2"/>
    </vehicle>
    <vehicle id="0.8.3" depart="14.40">
        <route edges="left2A2 A2A3 A3B3 B3C3 C3C2 C2C1 C1D1 D1right1"/>
    </vehicle>
    <vehicle id="0.9.3" depart="14.40">
        <route edges="left3A3 A3B3 B3C3 C3C2 C2D2 D2D1 D1D0 D0right0"/>
    </vehicle>
    <vehicle id="0.5.4" depart="19.20">
        <route edges="left0A0 A0B0 B0C0 C0D0 D0D1 D1D2 D2D3 D3right3"/>
    </vehicle>
    <vehicle id="0.6.4" depart="19.20">
        <route edges="left1A1 A1B1 B1B2 B2C2 C2D2 D2right2"/>
    </vehicle>
    <vehicle id="0.8.4" depart="19.20">
        <route edges="left2A2 A2B2 B2C2 C2C1 C1D1 D1right1"/>
    </vehicle>
    <vehicle id="0.9.4" depart="19.20">
        <route edges="left3A3 A3A2 A2A1 A1B1 B1B0 B0C0 C0D0 D0right0"/>
    </vehicle>
    <vehicle id="0.5.5" depart="24.00">
        <route edges="left0A0 A0B0 B0C0 C0C1 C1D1 D1D2 D2D3 D3right3"/>
    </vehicle>
    <vehicle id="0.6.5" depart="24.00">
        <route edges="left1A1 A1A2 A2A3 A3B3 B3C3 C3D3 D3D2 D2right2"/>
    </vehicle>
    <vehicle id="0.8.5" depart="24.00">
        <route edges="left2A2 A2B2 B2B1 B1C1 C1D1 D1right1"/>
    </vehicle>
    <vehicle id="0.9.5" depart="24.00">
        <route edges="left3A3 A3B3 B3C3 C3D3 D3D2 D2D1 D1D0 D0right0"/>
    </vehicle>
    <vehicle id="0.0.2" depart="28.80">
        <route edges="bottom0A0 A0B0 B0C0 C0C1 C1D1 D1D2 D2D3 D3top3"/>
    </vehicle>
    <vehicle id="0.1.2" depart="28.80">
        <route edges="bottom1B0 B0B1 B1C1 C1C2 C2C3 C3top2"/>
    </vehicle>
    <vehicle id="0.3.2" depart="28.80">
        <route edges="bottom2C0 C0C1 C1B1 B1B2 B2B3 B3top1"/>
    </vehicle>
    <vehicle id="0.4.2" depart="28.80">
        <route edges="bottom3D0 D0C0 C0B0 B0A0 A0A1 A1A2 A2A3 A3top0"/>
    </vehicle>
    <vehicle id="0.5.6" depart="28.80">
        <route edges="left0A0 A0A1 A1A2 A2B2 B2B3 B3C3 C3D3 D3right3"/>
    </vehicle>
    <vehicle id="0.6.6" depart="28.80">
        <route edges="left1A1 A1B1 B1C1 C1D1 D1D2 D2right2"/>
    </vehicle>
    <vehicle id="0.8.6" depart="28.80">
        <route edges="left2A2 A2B2 B2B1 B1C1 C1D1 D1right1"/>
    </vehicle>
    <vehicle id="0.9.6" depart="28.80">
        <route edges="left3A3 A3B3 B3C3 C3D3 D3D2 D2D1 D1D0 D0right0"/>
    </vehicle>
    <vehicle id="0.5.7" depart="33.60">
        <route edges="left0A0 A0B0 B0C0 C0C1 C1D1 D1D2 D2D3 D3right3"/>
    </vehicle>
    <vehicle id="0.6.7" depart="33.60">
        <route edges="left1A1 A1B1 B1B2 B2C2 C2D2 D2right2"/>
    </vehicle>
    <vehicle id="0.8.7" depart="33.60">
        <route edges="left2A2 A2A3 A3B3 B3C3 C3C2 C2C1 C1D1 D1right1"/>
    </vehicle>
    <vehicle id="0.9.7" depart="33.60">
        <route edges="left3A3 A3B3 B3C3 C3D3 D3D2 D2D1 D1D0 D0right0"/>
    </vehicle>
    <vehicle id="0.5.8" depart="38.40">
        <route edges="left0A0 A0B0 B0B1 B1B2 B2C2 C2C3 C3D3 D3right3"/>
    </vehicle>
    <vehicle id="0.6.8" depart="38.40">
        <route edges="left1A1 A1A2 A2B2 B2C2 C2D2 D2right2"/>
    </vehicle>
    <vehicle id="0.8.8" depart="38.40">
        <route edges="left2A2 A2A3 A3B3 B3C3 C3C2 C2C1 C1D1 D1right1"/>
    </vehicle>
    <vehicle id="0.9.8" depart="38.40">
        <route edges="left3A3 A3B3 B3B2 B2C2 C2C1 C1C0 C0D0 D0right0"/>
    </vehicle>
    <vehicle id="0.0.3" depart="43.20">
        <route edges="bottom0A0 A0B0 B0C0 C0D0 D0D1 D1D2 D2D3 D3top3"/>
    </vehicle>
    <vehicle id="0.1.3" depart="43.20">
        <route edges="bottom1B0 B0C0 C0C1 C1C2 C2C3 C3top2"/>
    </vehicle>
    <vehicle id="0.3.3" depart="43.20">
        <route edges="bottom2C0 C0B0 B0B1 B1B2 B2B3 B3top1"/>
    </vehicle>
    <vehicle id="0.4.3" depart="43.20">
        <route edges="bottom3D0 D0D1 D1C1 C1B1 B1A1 A1A2 A2A3 A3top0"/>
    </vehicle>
    <vehicle id="0.5.9" depart="43.20">
        <route edges="left0A0 A0A1 A1A2 A2B2 B2B3 B3C3 C3D3 D3right3"/>
    </vehicle>
    <vehicle id="0.6.9" depart="43.20">
        <route edges="left1A1 A1B1 B1B2 B2C2 C2D2 D2right2"/>
    </vehicle>
    <vehicle id="0.8.9" depart="43.20">
        <route edges="left2A2 A2B2 B2C2 C2C1 C1D1 D1right1"/>
    </vehicle>
    <vehicle id="0.9.9" depart="43.20">
        <route edges="left3A3 A3B3 B3C3 C3D3 D3D2 D2D1 D1D0 D0right0"/>
    </vehicle>
    <vehicle id="0.5.10" depart="48.00">
        <route edges="left0A0 A0B0 B0C0 C0C1 C1D1 D1D2 D2D3 D3right3"/>
    </vehicle>
    <vehicle id="0.6.10" depart="48.00">
        <route edges="left1A1 A1A2 A2B2 B2C2 C2D2 D2right2"/>
    </vehicle>
    <vehicle id="0.8.10" depart="48.00">
        <route edges="left2A2 A2B2 B2B1 B1C1 C1D1 D1right1"/>
    </vehicle>
    <vehicle id="0.9.10" depart="48.00">
        <route edges="left3A3 A3B3 B3B2 B2C2 C2C1 C1C0 C0D0 D0right0"/>
    </vehicle>
    <vehicle id="0.5.11" depart="52.80">
        <route edges="left0A0 A0B0 B0B1 B1B2 B2C2 C2C3 C3D3 D3right3"/>
    </vehicle>
    <vehicle id="0.6.11" depart="52.80">
        <route edges="left1A1 A1A2 A2B2 B2C2 C2D2 D2right2"/>
    </vehicle>
    <vehicle id="0.8.11" depart="52.80">
        <route edges="left2A2 A2B2 B2B1 B1C1 C1D1 D1right1"/>
    </vehicle>
    <vehicle id="0.9.11" depart="52.80">
        <route edges="left3A3 A3A2 A2A1 A1A0 A0B0 B0C0 C0D0 D0right0"/>
    </vehicle>
    <vehicle id="0.0.4" depart="57.60">
        <route edges="bottom0A0 A0B0 B0B1 B1B2 B2C2 C2C3 C3D3 D3top3"/>
    </vehicle>
    <vehicle id="0.1.4" depart="57.60">
        <route edges="bottom1B0 B0C0 C0C1 C1C2 C2C3 C3top2"/>
    </vehicle>
    <vehicle id="0.3.4" depart="57.60">
        <route edges="bottom2C0 C0C1 C1B1 B1B2 B2B3 B3top1"/>
    </vehicle>
    <vehicle id="0.4.4" depart="57.60">
        <route edges="bottom3D0 D0C0 C0B0 B0A0 A0A1 A1A2 A2A3 A3top0"/>
    </vehicle>
    <vehicle id="0.5.12" depart="57.60">
        <route edges="left0A0 A0B0 B0B1 B1B2 B2C2 C2C3 C3D3 D3right3"/>
    </vehicle>
    <vehicle id="0.6.12" depart="57.60">
        <route edges="left1A1 A1B1 B1B2 B2C2 C2D2 D2right2"/>
    </vehicle>
    <vehicle id="0.8.12" depart="57.60">
        <route edges="left2A2 A2A1 A1B1 B1C1 C1D1 D1right1"/>
    </vehicle>
    <vehicle id="0.9.12" depart="57.60">
        <route edges="left3A3 A3B3 B3C3 C3D3 D3D2 D2D1 D1D0 D0right0"/>
    </vehicle>
    <vehicle id="0.5.13" depart="62.40">
        <route edges="left0A0 A0A1 A1A2 A2A3 A3B3 B3C3 C3D3 D3right3"/>
    </vehicle>
    <vehicle id="0.6.13" depart="62.40">
        <route edges="left1A1 A1B1 B1C1 C1D1 D1D2 D2right2"/>
    </vehicle>
    <vehicle id="0.8.13" depart="62.40">
        <route edges="left2A2 A2A3 A3B3 B3C3 C3C2 C2C1 C1D1 D1right1"/>
    </vehicle>
    <vehicle id="0.9.13" depart="62.40">
        <route edges="left3A3 A3B3 B3C3 C3D3 D3D2 D2D1 D1D0 D0right0"/>
    </vehicle>
    <vehicle id="0.5.14" depart="67.20">
        <route edges="left0A0 A0A1 A1A2 A2A3 A3B3 B3C3 C3D3 D3right3"/>
    </vehicle>
    <vehicle id="0.6.14" depart="67.20">
        <route edges="left1A1 A1B1 B1C1 C1C2 C2D2 D2right2"/>
    </vehicle>
    <vehicle id="0.8.14" depart="67.20">
        <route edges="left2A2 A2B2 B2C2 C2D2 D2D1 D1right1"/>
    </vehicle>
    <vehicle id="0.9.14" depart="67.20">
        <route edges="left3A3 A3B3 B3C3 C3D3 D3D2 D2D1 D1D0 D0right0"/>
    </vehicle>
    <vehicle id="0.0.5" depart="72.00">
        <route edges="bottom0A0 A0B0 B0B1 B1B2 B2C2 C2C3 C3D3 D3top3"/>
    </vehicle>
    <vehicle id="0.1.5" depart="72.00">
        <route edges="bottom1B0 B0B1 B1C1 C1C2 C2C3 C3top2"/>
    </vehicle>
    <vehicle id="0.3.5" depart="72.00">
        <route edges="bottom2C0 C0B0 B0B1 B1B2 B2B3 B3top1"/>
    </vehicle>
    <vehicle id="0.4.5" depart="72.00">
        <route edges="bottom3D0 D0D1 D1D2 D2D3 D3C3 C3B3 B3A3 A3top0"/>
    </vehicle>
    <vehicle id="0.5.15" depart="72.00">
        <route edges="left0A0 A0A1 A1A2 A2B2 B2B3 B3C3 C3D3 D3right3"/>
    </vehicle>
    <vehicle id="0.6.15" depart="72.00">
        <route edges="left1A1 A1B1 B1C1 C1D1 D1D2 D2right2"/>
    </vehicle>
    <vehicle id="0.8.15" depart="72.00">
        <route edges="left2A2 A2B2 B2C2 C2D2 D2D1 D1right1"/>
    </vehicle>
    <vehicle id="0.9.15" depart="72.00">
        <route edges="left3A3 A3B3 B3B2 B2C2 C2C1 C1C0 C0D0 D0right0"/>
    </vehicle>
    <vehicle id="0.5.16" depart="76.80">
        <route edges="left0A0 A0B0 B0C0 C0C1 C1D1 D1D2 D2D3 D3right3"/>
    </vehicle>
    <vehicle id="0.6.16" depart="76.80">
        <route edges="left1A1 A1B1 B1C1 C1D1 D1D2 D2right2"/>
    </vehicle>
    <vehicle id="0.8.16" depart="76.80">
        <route edges="left2A2 A2A1 A1B1 B1C1 C1D1 D1right1"/>
    </vehicle>
    <vehicle id="0.9.16" depart="76.80">
        <route edges="left3A3 A3B3 B3B2 B2C2 C2C1 C1C0 C0D0 D0right0"/>
    </vehicle>
    <vehicle id="0.5.17" depart="81.60">
        <route edges="left0A0 A0A1 A1A2 A2A3 A3B3 B3C3 C3D3 D3right3"/>
    </vehicle>
    <vehicle id="0.6.17" depart="81.60">
        <route edges="left1A1 A1A2 A2A3 A3B3 B3C3 C3D3 D3D2 D2right2"/>
    </vehicle>
    <vehicle id="0.8.17" depart="81.60">
        <route edges="left2A2 A2B2 B2B1 B1C1 C1D1 D1right1"/>
    </vehicle>
    <vehicle id="0.9.17" depart="81.60">
        <route edges="left3A3 A3B3 B3B2 B2C2 C2C1 C1C0 C0D0 D0right0"/>
    </vehicle>
    <vehicle id="0.0.6" depart="86.40">
        <route edges="bottom0A0 A0B0 B0C0 C0C1 C1D1 D1D2 D2D3 D3top3"/>
    </vehicle>
    <vehicle id="0.1.6" depart="86.40">
        <route edges="bottom1B0 B0B1 B1B2 B2B3 B3C3 C3top2"/>
    </vehicle>
    <vehicle id="0.3.6" depart="86.40">
        <route edges="bottom2C0 C0B0 B0B1 B1B2 B2B3 B3top1"/>
    </vehicle>
    <vehicle id="0.4.6" depart="86.40">
        <route edges="bottom3D0 D0D1 D1D2 D2D3 D3C3 C3B3 B3A3 A3top0"/>
    </vehicle>
    <vehicle id="0.5.18" depart="86.40">
        <route edges="left0A0 A0A1 A1A2 A2B2 B2B3 B3C3 C3D3 D3right3"/>
    </vehicle>
    <vehicle id="0.6.18" depart="86.40">
        <route edges="left1A1 A1B1 B1C1 C1D1 D1D2 D2right2"/>
    </vehicle>
    <vehicle id="0.8.18" depart="86.40">
        <route edges="left2A2 A2B2 B2C2 C2C1 C1D1 D1right1"/>
    </vehicle>
    <vehicle id="0.9.18" depart="86.40">
        <route edges="left3A3 A3B3 B3C3 C3C2 C2D2 D2D1 D1D0 D0right0"/>
    </vehicle>
    <vehicle id="0.5.19" depart="91.20">
        <route edges="left0A0 A0B0 B0C0 C0D0 D0D1 D1D2 D2D3 D3right3"/>
    </vehicle>
    <vehicle id="0.6.19" depart="91.20">
        <route edges="left1A1 A1A2 A2A3 A3B3 B3C3 C3D3 D3D2 D2right2"/>
    </vehicle>
    <vehicle id="0.8.19" depart="91.20">
        <route edges="left2A2 A2A1 A1B1 B1C1 C1D1 D1right1"/>
    </vehicle>
    <vehicle id="0.9.19" depart="91.20">
        <route edges="left3A3 A3B3 B3C3 C3D3 D3D2 D2D1 D1D0 D0right0"/>
    </vehicle>
    <vehicle id="0.5.20" depart="96.00">
        <route edges="left0A0 A0A1 A1A2 A2B2 B2B3 B3C3 C3D3 D3right3"/>
    </vehicle>
    <vehicle id="0.6.20" depart="96.00">
        <route edges="left1A1 A1B1 B1C1 C1C2 C2D2 D2right2"/>
    </vehicle>
    <vehicle id="0.8.20" depart="96.00">
        <route edges="left2A2 A2A1 A1B1 B1C1 C1D1 D1right1"/>
    </vehicle>
    <vehicle id="0.9.20" depart="96.00">
        <route edges="left3A3 A3B3 B3C3 C3C2 C2D2 D2D1 D1D0 D0right0"/>
    </vehicle>
    <vehicle id="0.0.7" depart="100.80">
        <route edges="bottom0A0 A0A1 A1A2 A2B2 B2B3 B3C3 C3D3 D3top3"/>
    </vehicle>
    <vehicle id="0.1.7" depart="100.80">
        <route edges="bottom1B0 B0B1 B1B2 B2C2 C2C3 C3top2"/>
    </vehicle>
    <vehicle id="0.3.7" depart="100.80">
        <route edges="bottom2C0 C0B0 B0B1 B1B2 B2B3 B3top1"/>
    </vehicle>
    <vehicle id="0.4.7" depart="100.80">
        <route edges="bottom3D0 D0D1 D1D2 D2C2 C2C3 C3B3 B3A3 A3top0"/>
    </vehicle>
    <vehicle id="0.5.21" depart="100.80">
        <route edges="left0A0 A0A1 A1A2 A2B2 B2B3 B3C3 C3D3 D3right3"/>
    </vehicle>
    <vehicle id="0.6.21" depart="100.80">
        <route edges="left1A1 A1B1 B1C1 C1C2 C2D2 D2right2"/>
    </vehicle>
    <vehicle id="0.8.21" depart="100.80">
        <route edges="left2A2 A2B2 B2C2 C2C1 C1D1 D1right1"/>
    </vehicle>
    <vehicle id="0.9.21" depart="100.80">
        <route edges="left3A3 A3A2 A2A1 A1B1 B1B0 B0C0 C0D0 D0right0"/>
    </vehicle>
    <vehicle id="0.5.22" depart="105.60">
        <route edges="left0A0 A0B0 B0C0 C0C1 C1D1 D1D2 D2D3 D3right3"/>
    </vehicle>
    <vehicle id="0.6.22" depart="105.60">
        <route edges="left1A1 A1B1 B1C1 C1C2 C2D2 D2right2"/>
    </vehicle>
    <vehicle id="0.8.22" depart="105.60">
        <route edges="left2A2 A2A1 A1B1 B1C1 C1D1 D1right1"/>
    </vehicle>
    <vehicle id="0.9.22" depart="105.60">
        <route edges="left3A3 A3B3 B3C3 C3C2 C2D2 D2D1 D1D0 D0right0"/>
    </vehicle>
    <vehicle id="0.5.23" depart="110.40">
        <route edges="left0A0 A0B0 B0C0 C0D0 D0D1 D1D2 D2D3 D3right3"/>
    </vehicle>
    <vehicle id="0.6.23" depart="110.40">
        <route edges="left1A1 A1B1 B1B2 B2C2 C2D2 D2right2"/>
    </vehicle>
    <vehicle id="0.8.23" depart="110.40">
        <route edges="left2A2 A2B2 B2B1 B1C1 C1D1 D1right1"/>
    </vehicle>
    <vehicle id="0.9.23" depart="110.40">
        <route edges="left3A3 A3B3 B3B2 B2C2 C2C1 C1C0 C0D0 D0right0"/>
    </vehicle>
    <vehicle id="0.0.8" depart="115.20">
        <route edges="bottom0A0 A0B0 B0B1 B1B2 B2C2 C2C3 C3D3 D3top3"/>
    </vehicle>
    <vehicle id="0.1.8" depart="115.20">
        <route edges="bottom1B0 B0C0 C0C1 C1C2 C2C3 C3top2"/>
    </vehicle>
    <vehicle id="0.3.8" depart="115.20">
        <route edges="bottom2C0 C0C1 C1C2 C2C3 C3B3 B3top1"/>
    </vehicle>
    <vehicle id="0.4.8" depart="115.20">
        <route edges="bottom3D0 D0D1 D1C1 C1B1 B1A1 A1A2 A2A3 A3top0"/>
    </vehicle>
    <vehicle id="0.5.24" depart="115.20">
        <route edges="left0A0 A0B0 B0B1 B1B2 B2C2 C2C3 C3D3 D3right3"/>
    </vehicle>
    <vehicle id="0.6.24" depart="115.20">
        <route edges="left1A1 A1B1 B1C1 C1D1 D1D2 D2right2"/>
    </vehicle>
    <vehicle id="0.8.24" depart="115.20">
        <route edges="left2A2 A2B2 B2C2 C2D2 D2D1 D1right1"/>
    </vehicle>
    <vehicle id="0.9.24" depart="115.20">
        <route edges="left3A3 A3B3 B3C3 C3C2 C2D2 D2D1 D1D0 D0right0"/>
    </vehicle>
    <vehicle id="0.5.25" depart="120.00">
        <route edges="left0A0 A0B0 B0C0 C0C1 C1D1 D1D2 D2D3 D3right3"/>
    </vehicle>
    <vehicle id="0.6.25" depart="120.00">
        <route edges="left1A1 A1B1 B1C1 C1C2 C2D2 D2right2"/>
    </vehicle>
    <vehicle id="0.8.25" depart="120.00">
        <route edges="left2A2 A2B2 B2C2 C2C1 C1D1 D1right1"/>
    </vehicle>
    <vehicle id="0.9.25" depart="120.00">
        <route edges="left3A3 A3B3 B3C3 C3C2 C2D2 D2D1 D1D0 D0right0"/>
    </vehicle>
    <vehicle id="0.5.26" depart="124.80">
        <route edges="left0A0 A0B0 B0C0 C0D0 D0D1 D1D2 D2D3 D3right3"/>
    </vehicle>
    <vehicle id="0.6.26" depart="124.80">
        <route edges="left1A1 A1B1 B1B2 B2C2 C2D2 D2right2"/>
    </vehicle>
    <vehicle id="0.8.26" depart="124.80">
        <route edges="left2A2 A2B2 B2C2 C2D2 D2D1 D1right1"/>
    </vehicle>
    <vehicle id="0.9.26" depart="124.80">
        <route edges="left3A3 A3A2 A2A1 A1A0 A0B0 B0C0 C0D0 D0right0"/>
    </vehicle>
    <vehicle id="0.0.9" depart="129.60">
        <route edges="bottom0A0 A0A1 A1A2 A2B2 B2B3 B3C3 C3D3 D3top3"/>
    </vehicle>
    <vehicle id="0.1.9" depart="129.60">
        <route edges="bottom1B0 B0B1 B1B2 B2B3 B3C3 C3top2"/>
    </vehicle>
    <vehicle id="0.3.9" depart="129.60">
        <route edges="bottom2C0 C0C1 C1C2 C2C3 C3B3 B3top1"/>
    </vehicle>
    <vehicle id="0.4.9" depart="129.60">
        <route edges="bottom3D0 D0D1 D1C1 C1B1 B1B2 B2A2 A2A3 A3top0"/>
    </vehicle>
    <vehicle id="0.5.27" depart="129.60">
        <route edges="left0A0 A0B0 B0B1 B1B2 B2C2 C2C3 C3D3 D3right3"/>
    </vehicle>
    <vehicle id="0.6.27" depart="129.60">
        <route edges="left1A1 A1B1 B1C1 C1D1 D1D2 D2right2"/>
    </vehicle>
    <vehicle id="0.8.27" depart="129.60">
        <route edges="left2A2 A2B2 B2C2 C2C1 C1D1 D1right1"/>
    </vehicle>
    <vehicle id="0.9.27" depart="129.60">
        <route edges="left3A3 A3A2 A2A1 A1B1 B1B0 B0C0 C0D0 D0right0"/>
    </vehicle>
    <vehicle id="0.5.28" depart="134.40">
        <route edges="left0A0 A0B0 B0B1 B1B2 B2C2 C2C3 C3D3 D3right3"/>
    </vehicle>
    <vehicle id="0.6.28" depart="134.40">
        <route edges="left1A1 A1B1 B1C1 C1C2 C2D2 D2right2"/>
    </vehicle>
    <vehicle id="0.8.28" depart="134.40">
        <route edges="left2A2 A2B2 B2C2 C2D2 D2D1 D1right1"/>
    </vehicle>
    <vehicle id="0.9.28" depart="134.40">
        <route edges="left3A3 A3B3 B3B2 B2C2 C2C1 C1C0 C0D0 D0right0"/>
    </vehicle>
    <vehicle id="0.5.29" depart="139.20">
        <route edges="left0A0 A0A1 A1A2 A2A3 A3B3 B3C3 C3D3 D3right3"/>
    </vehicle>
    <vehicle id="0.6.29" depart="139.20">
        <route edges="left1A1 A1B1 B1C1 C1D1 D1D2 D2right2"/>
    </vehicle>
    <vehicle id="0.8.29" depart="139.20">
        <route edges="left2A2 A2B2 B2C2 C2C1 C1D1 D1right1"/>
    </vehicle>
    <vehicle id="0.9.29" depart="139.20">
        <route edges="left3A3 A3A2 A2A1 A1B1 B1B0 B0C0 C0D0 D0right0"/>
    </vehicle>
    <vehicle id="0.0.10" depart="144.00">
        <route edges="bottom0A0 A0B0 B0C0 C0D0 D0D1 D1D2 D2D3 D3top3"/>
    </vehicle>
    <vehicle id="0.1.10" depart="144.00">
        <route edges="bottom1B0 B0B1 B1B2 B2B3 B3C3 C3top2"/>
    </vehicle>
    <vehicle id="0.3.10" depart="144.00">
        <route edges="bottom2C0 C0C1 C1B1 B1B2 B2B3 B3top1"/>
    </vehicle>
    <vehicle id="0.4.10" depart="144.00">
        <route edges="bottom3D0 D0D1 D1D2 D2D3 D3C3 C3B3 B3A3 A3top0"/>
    </vehicle>
    <vehicle id="0.5.30" depart="144.00">
        <route edges="left0A0 A0B0 B0C0 C0D0 D0D1 D1D2 D2D3 D3right3"/>
    </vehicle>
    <vehicle id="0.6.30" depart="144.00">
        <route edges="left1A1 A1B1 B1C1 C1D1 D1D2 D2right2"/>
    </vehicle>
    <vehicle id="0.8.30" depart="144.00">
        <route edges="left2A2 A2B2 B2C2 C2C1 C1D1 D1right1"/>
    </vehicle>
    <vehicle id="0.9.30" depart="144.00">
        <route edges="left3A3 A3B3 B3B2 B2C2 C2C1 C1C0 C0D0 D0right0"/>
    </vehicle>
    <vehicle id="0.5.31" depart="148.80">
        <route edges="left0A0 A0B0 B0C0 C0C1 C1D1 D1D2 D2D3 D3right3"/>
    </vehicle>
    <vehicle id="0.6.31" depart="148.80">
        <route edges="left1A1 A1B1 B1B2 B2C2 C2D2 D2right2"/>
    </vehicle>
    <vehicle id="0.8.31" depart="148.80">
        <route edges="left2A2 A2A1 A1B1 B1C1 C1D1 D1right1"/>
    </vehicle>
    <vehicle id="0.9.31" depart="148.80">
        <route edges="left3A3 A3B3 B3C3 C3D3 D3D2 D2D1 D1D0 D0right0"/>
    </vehicle>
    <vehicle id="0.5.32" depart="153.60">
        <route edges="left0A0 A0B0 B0B1 B1B2 B2C2 C2C3 C3D3 D3right3"/>
    </vehicle>
    <vehicle id="0.6.32" depart="153.60">
        <route edges="left1A1 A1B1 B1C1 C1D1 D1D2 D2right2"/>
    </vehicle>
    <vehicle id="0.8.32" depart="153.60">
        <route edges="left2A2 A2A1 A1B1 B1C1 C1D1 D1right1"/>
    </vehicle>
    <vehicle id="0.9.32" depart="153.60">
        <route edges="left3A3 A3B3 B3C3 C3C2 C2D2 D2D1 D1D0 D0right0"/>
    </vehicle>
    <vehicle id="0.0.11" depart="158.40">
        <route edges="bottom0A0 A0B0 B0B1 B1B2 B2C2 C2C3 C3D3 D3top3"/>
    </vehicle>
    <vehicle id="0.1.11" depart="158.40">
        <route edges="bottom1B0 B0B1 B1B2 B2C2 C2C3 C3top2"/>
    </vehicle>
    <vehicle id="0.3.11" depart="158.40">
        <route edges="bottom2C0 C0C1 C1B1 B1B2 B2B3 B3top1"/>
    </vehicle>
    <vehicle id="0.4.11" depart="158.40">
        <route edges="bottom3D0 D0D1 D1D2 D2C2 C2C3 C3B3 B3A3 A3top0"/>
    </vehicle>
    <vehicle id="0.5.33" depart="158.40">
        <route edges="left0A0 A0B0 B0C0 C0C1 C1D1 D1D2 D2D3 D3right3"/>
    </vehicle>
    <vehicle id="0.6.33" depart="158.40">
        <route edges="left1A1 A1B1 B1C1 C1C2 C2D2 D2right2"/>
    </vehicle>
    <vehicle id="0.8.33" depart="158.40">
        <route edges="left2A2 A2B2 B2C2 C2C1 C1D1 D1right1"/>
    </vehicle>
    <vehicle id="0.9.33" depart="158.40">
        <route edges="left3A3 A3B3 B3C3 C3D3 D3D2 D2D1 D1D0 D0right0"/>
    </vehicle>
    <vehicle id="0.5.34" depart="163.20">
        <route edges="left0A0 A0A1 A1A2 A2A3 A3B3 B3C3 C3D3 D3right3"/>
    </vehicle>
    <vehicle id="0.6.34" depart="163.20">
        <route edges="left1A1 A1B1 B1C1 C1C2 C2D2 D2right2"/>
    </vehicle>
    <vehicle id="0.8.34" depart="163.20">
        <route edges="left2A2 A2A3 A3B3 B3C3 C3C2 C2C1 C1D1 D1right1"/>
    </vehicle>
    <vehicle id="0.9.34" depart="163.20">
        <route edges="left3A3 A3B3 B3C3 C3D3 D3D2 D2D1 D1D0 D0right0"/>
    </vehicle>
    <vehicle id="0.5.35" depart="168.00">
        <route edges="left0A0 A0B0 B0C0 C0D0 D0D1 D1D2 D2D3 D3right3"/>
    </vehicle>
    <vehicle id="0.6.35" depart="168.00">
        <route edges="left1A1 A1B1 B1C1 C1D1 D1D2 D2right2"/>
    </vehicle>
    <vehicle id="0.8.35" depart="168.00">
        <route edges="left2A2 A2A3 A3B3 B3C3 C3C2 C2C1 C1D1 D1right1"/>
    </vehicle>
    <vehicle id="0.9.35" depart="168.00">
        <route edges="left3A3 A3B3 B3B2 B2C2 C2C1 C1C0 C0D0 D0right0"/>
    </vehicle>
    <vehicle id="0.0.12" depart="172.80">
        <route edges="bottom0A0 A0B0 B0B1 B1B2 B2C2 C2C3 C3D3 D3top3"/>
    </vehicle>
    <vehicle id="0.1.12" depart="172.80">
        <route edges="bottom1B0 B0B1 B1C1 C1C2 C2C3 C3top2"/>
    </vehicle>
    <vehicle id="0.3.12" depart="172.80">
        <route edges="bottom2C0 C0C1 C1C2 C2B2 B2B3 B3top1"/>
    </vehicle>
    <vehicle id="0.4.12" depart="172.80">
        <route edges="bottom3D0 D0D1 D1C1 C1B1 B1B2 B2A2 A2A3 A3top0"/>
    </vehicle>
    <vehicle id="0.5.36" depart="172.80">
        <route edges="left0A0 A0B0 B0B1 B1B2 B2C2 C2C3 C3D3 D3right3"/>
    </vehicle>
    <vehicle id="0.6.36" depart="172.80">
        <route edges="left1A1 A1B1 B1B2 B2C2 C2D2 D2right2"/>
    </vehicle>
    <vehicle id="0.8.36" depart="172.80">
        <route edges="left2A2 A2B2 B2C2 C2D2 D2D1 D1right1"/>
    </vehicle>
    <vehicle id="0.9.36" depart="172.80">
        <route edges="left3A3 A3B3 B3B2 B2C2 C2C1 C1C0 C0D0 D0right0"/>
    </vehicle>
    <vehicle id="0.5.37" depart="177.60">
        <route edges="left0A0 A0B0 B0C0 C0C1 C1D1 D1D2 D2D3 D3right3"/>
    </vehicle>
    <vehicle id="0.6.37" depart="177.60">
        <route edges="left1A1 A1B1 B1C1 C1C2 C2D2 D2right2"/>
    </vehicle>
    <vehicle id="0.8.37" depart="177.60">
        <route edges="left2A2 A2B2 B2C2 C2D2 D2D1 D1right1"/>
    </vehicle>
    <vehicle id="0.9.37" depart="177.60">
        <route edges="left3A3 A3A2 A2A1 A1A0 A0B0 B0C0 C0D0 D0right0"/>
    </vehicle>
    <vehicle id="0.5.38" depart="182.40">
        <route edges="left0A0 A0A1 A1A2 A2B2 B2B3 B3C3 C3D3 D3right3"/>
    </vehicle>
    <vehicle id="0.6.38" depart="182.40">
        <route edges="left1A1 A1A2 A2B2 B2C2 C2D2 D2right2"/>
    </vehicle>
    <vehicle id="0.8.38" depart="182.40">
        <route edges="left2A2 A2B2 B2C2 C2D2 D2D1 D1right1"/>
    </vehicle>
    <vehicle id="0.9.38" depart="182.40">
        <route edges="left3A3 A3B3 B3C3 C3D3 D3D2 D2D1 D1D0 D0right0"/>
    </vehicle>
    <vehicle id="0.0.13" depart="187.20">
        <route edges="bottom0A0 A0B0 B0B1 B1B2 B2C2 C2C3 C3D3 D3top3"/>
    </vehicle>
    <vehicle id="0.1.13" depart="187.20">
        <route edges="bottom1B0 B0B1 B1C1 C1C2 C2C3 C3top2"/>
    </vehicle>
    <vehicle id="0.3.13" depart="187.20">
        <route edges="bottom2C0 C0B0 B0B1 B1B2 B2B3 B3top1"/>
    </vehicle>
    <vehicle id="0.4.13" depart="187.20">
        <route edges="bottom3D0 D0C0 C0B0 B0A0 A0A1 A1A2 A2A3 A3top0"/>
    </vehicle>
    <vehicle id="0.5.39" depart="187.20">
        <route edges="left0A0 A0B0 B0C0 C0C1 C1D1 D1D2 D2D3 D3right3"/>
    </vehicle>
    <vehicle id="0.6.39" depart="187.20">
        <route edges="left1A1 A1B1 B1B2 B2C2 C2D2 D2right2"/>
    </vehicle>
    <vehicle id="0.8.39" depart="187.20">
        <route edges="left2A2 A2B2 B2C2 C2D2 D2D1 D1right1"/>
    </vehicle>
    <vehicle id="0.9.39" depart="187.20">
        <route edges="left3A3 A3B3 B3C3 C3C2 C2D2 D2D1 D1D0 D0right0"/>
    </vehicle>
    <vehicle id="0.5.40" depart="192.00">
        <route edges="left0A0 A0B0 B0B1 B1B2 B2C2 C2C3 C3D3 D3right3"/>
    </vehicle>
    <vehicle id="0.6.40" depart="192.00">
        <route edges="left1A1 A1B1 B1B2 B2C2 C2D2 D2right2"/>
    </vehicle>
    <vehicle id="0.8.40" depart="192.00">
        <route edges="left2A2 A2A1 A1B1 B1C1 C1D1 D1right1"/>
    </vehicle>
    <vehicle id="0.9.40" depart="192.00">
        <route edges="left3A3 A3B3 B3C3 C3D3 D3D2 D2D1 D1D0 D0right0"/>
    </vehicle>
    <vehicle id="0.5.41" depart="196.80">
        <route edges="left0A0 A0B0 B0C0 C0C1 C1D1 D1D2 D2D3 D3right3"/>
    </vehicle>
    <vehicle id="0.6.41" depart="196.80">
        <route edges="left1A1 A1B1 B1C1 C1C2 C2D2 D2right2"/>
    </vehicle>
    <vehicle id="0.8.41" depart="196.80">
        <route edges="left2A2 A2B2 B2C2 C2D2 D2D1 D1right1"/>
    </vehicle>
    <vehicle id="0.9.41" depart="196.80">
        <route edges="left3A3 A3B3 B3C3 C3D3 D3D2 D2D1 D1D0 D0right0"/>
    </vehicle>
    <vehicle id="0.0.14" depart="201.60">
        <route edges="bottom0A0 A0B0 B0C0 C0C1 C1D1 D1D2 D2D3 D3top3"/>
    </vehicle>
    <vehicle id="0.1.14" depart="201.60">
        <route edges="bottom1B0 B0B1 B1B2 B2B3 B3C3 C3top2"/>
    </vehicle>
    <vehicle id="0.3.14" depart="201.60">
        <route edges="bottom2C0 C0C1 C1B1 B1B2 B2B3 B3top1"/>
    </vehicle>
    <vehicle id="0.4.14" depart="201.60">
        <route edges="bottom3D0 D0D1 D1D2 D2C2 C2C3 C3B3 B3A3 A3top0"/>
    </vehicle>
    <vehicle id="0.5.42" depart="201.60">
        <route edges="left0A0 A0B0 B0C0 C0D0 D0D1 D1D2 D2D3 D3right3"/>
    </vehicle>
    <vehicle id="0.6.42" depart="201.60">
        <route edges="left1A1 A1A2 A2A3 A3B3 B3C3 C3D3 D3D2 D2right2"/>
    </vehicle>
    <vehicle id="0.8.42" depart="201.60">